# File generated by pmutt on 2019-08-02 14:48:47.015589

#--------------------------------------------------------------------------------
# UNITS
#--------------------------------------------------------------------------------
units(length="cm", time="s", quantity="mol", energy="kcal/mol",
      act_energy="kcal/mol", pressure="bar", mass="g")

#--------------------------------------------------------------------------------
# PHASES
#--------------------------------------------------------------------------------
ideal_gas(name="gas",
          elements="N H",
          species="N2 NH3 H2")

stoichiometric_solid(name="bulk",
                     elements="Ru",
                     species="RU(B)",
                     density=12.4,
                     note="Ru Metal")

interacting_interface(name="terrace",
                      elements="N Ru H",
                      species="N2(S) N(S) H(S) NH3(S) NH2(S) NH(S) RU(S)",
                      phases="gas bulk",
                      site_density=2.1671e-09,
                      note="Ru(0001)",
                      interactions="all",
                      reactions="all")


#--------------------------------------------------------------------------------
# SPECIES
#--------------------------------------------------------------------------------
species(name="N2", atoms="N:2",
        thermo=(NASA([298.0, 523.3877551020408],
                     [ 3.41792195E+00,  8.91688129E-04, -3.46864753E-06,
                       5.44691795E-09, -2.46804017E-12, -1.27217456E+02,
                       3.46925670E+00]),
                NASA([523.3877551020408, 800.0], 
                     [ 3.75207309E+00, -1.30159027E-03,  1.83848785E-06,
                      -1.17413430E-10, -3.65391117E-13, -1.67464905E+02,
                       2.02487460E+00])))

species(name="NH3", atoms="N:1 H:3",
        thermo=(NASA([298.0, 533.6326530612245],
                     [ 4.57124680E+00, -6.89724277E-03,  2.70972941E-05,
                      -3.44331645E-08,  1.62568430E-11, -8.53630325E+03,
                      -1.78236359E+00]),
                NASA([533.6326530612245, 800.0], 
                     [ 3.29427463E+00,  2.57481517E-03,  5.20883059E-07,
                      -1.00678313E-09,  3.59356180E-13, -8.39739662E+03,
                       3.59518301E+00])))

species(name="H2", atoms="H:2",
        thermo=(NASA([298.0, 574.6122448979592],
                     [ 3.50717925E+00, -8.50397135E-05,  3.79570576E-07,
                      -7.57943298E-10,  5.72423558E-13,  1.68725520E+03,
                      -4.30359617E+00]),
                NASA([574.6122448979592, 800.0], 
                     [ 3.37903251E+00,  7.92301907E-04, -1.88662952E-06,
                       1.85974220E-09, -5.68447254E-13,  1.70231785E+03,
                      -3.75384879E+00])))

species(name="N2(S)", atoms="N:2",
        thermo=(NASA([298.0, 482.40816326530614],
                     [ 4.40553502E-01,  2.97759950E-02, -8.47698148E-05,
                       1.16195177E-07, -6.12938589E-11, -6.81726811E+03,
                      -1.67561821E+00]),
                NASA([482.40816326530614, 800.0], 
                     [ 3.42605836E+00,  5.03710708E-03, -6.92689694E-06,
                       6.03246113E-09, -2.18862675E-12, -7.10922368E+03,
                      -1.39236755E+01])))

species(name="N(S)", atoms="N:1",
        thermo=(NASA([298.0, 502.8979591836735],
                     [-5.23174593E+00,  6.11537184E-02, -1.47762309E-04,
                       1.74618161E-07, -8.21997526E-11, -1.05502378E+04,
                       1.88654280E+01]),
                NASA([502.8979591836735, 800.0], 
                     [-8.29107669E-01,  2.64469843E-02, -4.38832016E-05,
                       3.47600781E-08, -1.07819310E-11, -1.10025913E+04,
                       5.84749603E-01])))

species(name="H(S)", atoms="H:1",
        thermo=(NASA([298.0, 461.9183673469388],
                     [-1.41307531E+00,  1.00687718E-02,  1.09758988E-06,
                      -2.55216914E-08,  2.17566538E-11, -6.12970520E+03,
                       5.64702945E+00]),
                NASA([461.9183673469388, 800.0], 
                     [-2.11302416E+00,  1.72572991E-02, -2.60046478E-05,
                       1.92388088E-08, -5.68363784E-12, -6.07693323E+03,
                       8.35415551E+00])))

species(name="NH3(S)", atoms="N:1 H:3",
        thermo=(NASA([298.0, 461.9183673469388],
                     [ 1.16759533E+00,  2.05732170E-02, -3.66958772E-05,
                       4.56112325E-08, -2.49628744E-11, -1.42313136E+04,
                      -4.80541265E+00]),
                NASA([461.9183673469388, 800.0], 
                     [ 1.58312977E+00,  1.57753291E-02, -1.71587153E-05,
                       1.15414255E-08, -3.21958978E-12, -1.42569335E+04,
                      -6.35113154E+00])))

species(name="NH2(S)", atoms="N:1 H:2",
        thermo=(NASA([298.0, 523.3877551020408],
                     [-2.56305506E+00,  3.84726874E-02, -7.73503504E-05,
                       8.09903199E-08, -3.43595838E-11, -1.17458710E+04,
                       8.90805309E+00]),
                NASA([523.3877551020408, 800.0], 
                     [-6.86530719E-01,  2.43298826E-02, -3.68705157E-05,
                       2.88483783E-08, -8.86963660E-12, -1.19475429E+04,
                       1.03190122E+00])))

species(name="NH(S)", atoms="N:1 H:1",
        thermo=(NASA([298.0, 543.8775510204082],
                     [-3.73687435E+00,  4.05226889E-02, -8.44226964E-05,
                       8.65932632E-08, -3.53036247E-11, -1.46202194E+04,
                       1.37781593E+01]),
                NASA([543.8775510204082, 800.0], 
                     [-1.33660645E+00,  2.33106600E-02, -3.77180253E-05,
                       2.97486446E-08, -9.12157176E-12, -1.48903408E+04,
                       3.58875312E+00])))

species(name="TS1_NH3(S)", atoms="N:1 H:3",
        thermo=(NASA([298.0, 451.67346938775506],
                     [ 4.96418515E-02,  2.15674671E-02, -2.75604959E-05,
                       2.23225323E-08, -8.79255935E-12, -2.50477082E+03,
                      -1.46494399E+00]),
                NASA([451.67346938775506, 800.0], 
                     [ 5.21221040E-02,  2.11615812E-02, -2.49542203E-05,
                       1.66204937E-08, -4.59897868E-12, -2.50097843E+03,
                      -1.43112446E+00])))

species(name="TS2_NH2(S)", atoms="N:1 H:2",
        thermo=(NASA([298.0, 554.1224489795918],
                     [-2.58881424E+00,  3.43781302E-02, -5.87419101E-05,
                       5.18321984E-08, -1.87340797E-11, -5.75828318E+03,
                       8.95651586E+00]),
                NASA([554.1224489795918, 800.0], 
                     [-1.48538501E+00,  2.67287608E-02, -3.86606417E-05,
                       2.81558194E-08, -8.15140597E-12, -5.88676384E+03,
                       4.23478568E+00])))

species(name="TS3_NH(S)", atoms="N:1 H:1",
        thermo=(NASA([298.0, 482.40816326530614],
                     [-1.80701218E+00,  3.07479132E-02, -6.96816870E-05,
                       8.30020912E-08, -4.08170225E-11, -2.37130921E+03,
                       5.69757432E+00]),
                NASA([482.40816326530614, 800.0], 
                     [-1.24242592E-01,  1.65859456E-02, -2.43704704E-05,
                       1.77594067E-08, -5.19878424E-12, -2.53360814E+03,
                      -1.18117850E+00])))

species(name="TS4_N2(S)", atoms="N:2",
        thermo=(NASA([298.0, 482.40816326530614],
                     [-1.75107618E+00,  4.12189598E-02, -1.09828935E-04,
                       1.41320046E-07, -7.17404084E-11,  2.18954964E+04,
                       4.82355594E+00]),
                NASA([482.40816326530614, 800.0], 
                     [ 1.52431744E+00,  1.40315985E-02, -2.40821843E-05,
                       1.96281604E-08, -6.24114074E-12,  2.15755109E+04,
                      -8.60931129E+00])))

species(name="RU(S)", atoms="Ru:1",
        thermo=(NASA([298.0, 554.1224489795918],
                     [ 0.00000000E+00,  0.00000000E+00,  0.00000000E+00,
                       0.00000000E+00,  0.00000000E+00,  0.00000000E+00,
                       0.00000000E+00]),
                NASA([554.1224489795918, 800.0], 
                     [ 0.00000000E+00,  0.00000000E+00,  0.00000000E+00,
                       0.00000000E+00,  0.00000000E+00,  0.00000000E+00,
                       0.00000000E+00])))

species(name="RU(B)", atoms="Ru:1",
        thermo=(NASA([298.0, 554.1224489795918],
                     [ 0.00000000E+00,  0.00000000E+00,  0.00000000E+00,
                       0.00000000E+00,  0.00000000E+00,  0.00000000E+00,
                       0.00000000E+00]),
                NASA([554.1224489795918, 800.0], 
                     [ 0.00000000E+00,  0.00000000E+00,  0.00000000E+00,
                       0.00000000E+00,  0.00000000E+00,  0.00000000E+00,
                       0.00000000E+00])))


#--------------------------------------------------------------------------------
# LATERAL INTERACTIONS
#--------------------------------------------------------------------------------
lateral_interaction("N(S) N(S)", [-52.6], [0])
lateral_interaction("N(S) H(S)", [-17.7], [0])
lateral_interaction("H(S) N(S)", [-17.7], [0])
lateral_interaction("H(S) H(S)", [-3.], [0])
lateral_interaction("NH2(S) N(S)", [-20.7], [0])

#--------------------------------------------------------------------------------
# REACTION OPTIONS
#--------------------------------------------------------------------------------
enable_motz_wise()


#--------------------------------------------------------------------------------
# REACTIONS
#--------------------------------------------------------------------------------
surface_reaction("H2 + 2 RU(S) <=> 2 H(S) + 2 RU(B)", stick( 5.00000e-01, 1,  0.00000e+00))
surface_reaction("N2 + RU(S) <=> N2(S) + RU(B)", stick( 5.00000e-01, 1,  0.00000e+00))
surface_reaction("NH3 + RU(S) <=> NH3(S) + RU(B)", stick( 5.00000e-01, 1,  0.00000e+00))
surface_reaction("NH3(S) + RU(S) <=> NH2(S) + H(S) + RU(B)", [ 9.61497e+18, 1,  2.42941e+01])
surface_reaction("NH2(S) + RU(S) <=> NH(S) + H(S) + RU(B)", [ 9.61497e+18, 1,  1.21743e+01])
surface_reaction("NH(S) + RU(S) <=> N(S) + H(S) + RU(B)", [ 9.61497e+18, 1,  2.44974e+01])
surface_reaction("2 N(S) + RU(B) <=> N2(S) + RU(S)", [ 9.61497e+18, 1,  8.64724e+01])